Examples/ADiakoptics/TnDSystem/Transmission/Torn_Circuit/Line.DSS
New "Line.1-2" bus1=b1 bus2=b2 r1=3.345408 x1=10.0188 r0=10.03622 x0=30.0564 C1=803.7939 C0=267.9313 length=1
New "Line.1-3" bus1=b1 bus2=b3 r1=7.875648 x1=28.78445 r0=23.62694 x0=86.35334 C1=621.1135 C0=207.0378 length=1
New "Line.2-4" bus1=b2 bus2=b4 r1=9.93168 x1=30.26549 r0=29.79504 x0=90.79646 C1=560.22 C0=186.74 length=1
New "Line.3-4" bus1=b3 bus2=b4 r1=2.299968 x1=6.603696 r0=6.899904 x0=19.81109 C1=127.8763 C0=42.62543 length=1
New "Line.2-5" bus1=b2 bus2=b5 r1=8.224128 x1=34.55179 r0=24.67238 x0=103.6554 C1=636.3368 C0=212.1123 length=1
New "Line.2-6" bus1=b2 bus2=b6 r1=10.12334 x1=30.71851 r0=30.37003 x0=92.15554 C1=569.354 C0=189.7847 length=1
New "Line.4-6" bus1=b4 bus2=b6 r1=2.073456 x1=7.213536 r0=6.220368 x0=21.64061 C1=137.0103 C0=45.67011 length=1
New "Line.5-7" bus1=b5 bus2=b7 r1=8.01504 x1=20.21184 r0=24.04512 x0=60.63552 C1=310.5567 C0=103.5189 length=1
New "Line.6-7" bus1=b6 bus2=b7 r1=4.652208 x1=14.28768 r0=13.95662 x0=42.86304 C1=258.7973 C0=86.26576 length=1
New "Line.6-8" bus1=b6 bus2=b8 r1=2.09088 x1=7.31808 r0=6.27264 x0=21.95424 C1=137.0103 C0=45.67011 length=1
New "Line.12-14" bus1=b12 bus2=b14 r1=1.340559 x1=2.786751 r0=4.021677 x0=8.360253 C1=0 C0=0 length=1
New "Line.12-15" bus1=b12 bus2=b15 r1=0.720918 x1=1.420056 r0=2.162754 x0=4.260168 C1=0 C0=0 length=1
New "Line.12-16" bus1=b12 bus2=b16 r1=1.029105 x1=2.163843 r0=3.087315 x0=6.491529 C1=0 C0=0 length=1
New "Line.14-15" bus1=b14 bus2=b15 r1=2.40669 x1=2.174733 r0=7.22007 x0=6.524199 C1=0 C0=0 length=1
New "Line.16-17" bus1=b16 bus2=b17 r1=0.570636 x1=2.094147 r0=1.711908 x0=6.282441 C1=0 C0=0 length=1
New "Line.15-18" bus1=b15 bus2=b18 r1=1.168497 x1=2.379465 r0=3.505491 x0=7.138395 C1=0 C0=0 length=1
New "Line.18-19" bus1=b18 bus2=b19 r1=0.695871 x1=1.406988 r0=2.087613 x0=4.220964 C1=0 C0=0 length=1
New "Line.19-20" bus1=b19 bus2=b20 r1=0.37026 x1=0.74052 r0=1.11078 x0=2.22156 C1=0 C0=0 length=1
New "Line.10-20" bus1=b10 bus2=b20 r1=1.019304 x1=2.27601 r0=3.057912 x0=6.82803 C1=0 C0=0 length=1
New "Line.10-17" bus1=b10 bus2=b17 r1=0.352836 x1=0.920205 r0=1.058508 x0=2.760615 C1=0 C0=0 length=1
New "Line.10-21" bus1=b10 bus2=b21 r1=0.378972 x1=0.815661 r0=1.136916 x0=2.446983 C1=0 C0=0 length=1
New "Line.10-22" bus1=b10 bus2=b22 r1=0.791703 x1=1.632411 r0=2.375109 x0=4.897233 C1=0 C0=0 length=1
New "Line.21-22" bus1=b21 bus2=b22 r1=0.126324 x1=0.257004 r0=0.378972 x0=0.771012 C1=0 C0=0 length=1
New "Line.15-23" bus1=b15 bus2=b23 r1=1.089 x1=2.19978 r0=3.267 x0=6.59934 C1=0 C0=0 length=1
New "Line.22-24" bus1=b22 bus2=b24 r1=1.25235 x1=1.94931 r0=3.75705 x0=5.84793 C1=0 C0=0 length=1
New "Line.23-24" bus1=b23 bus2=b24 r1=1.43748 x1=2.9403 r0=4.31244 x0=8.8209 C1=0 C0=0 length=1
New "Line.24-25" bus1=b24 bus2=b25 r1=2.052765 x1=3.584988 r0=6.158295 x0=10.75496 C1=0 C0=0 length=1
New "Line.25-26" bus1=b25 bus2=b26 r1=2.770416 x1=4.1382 r0=8.311248 x0=12.4146 C1=0 C0=0 length=1
New "Line.25-27" bus1=b25 bus2=b27 r1=1.190277 x1=2.272743 r0=3.570831 x0=6.818229 C1=0 C0=0 length=1
New "Line.27-29" bus1=b27 bus2=b29 r1=2.393622 x1=4.522617 r0=7.180866 x0=13.56785 C1=0 C0=0 length=1
New "Line.27-30" bus1=b27 bus2=b30 r1=3.486978 x1=6.563403 r0=10.46093 x0=19.69021 C1=0 C0=0 length=1
New "Line.29-30" bus1=b29 bus2=b30 r1=2.612511 x1=4.936437 r0=7.837533 x0=14.80931 C1=0 C0=0 length=1
New "Line.8-28" bus1=b8 bus2=b28 r1=11.08166 x1=34.848 r0=33.24499 x0=104.544 C1=651.5602 C0=217.1867 length=1
New "Line.6-28" bus1=b6 bus2=b28 r1=2.944656 x1=10.43698 r0=8.833968 x0=31.31093 C1=197.9038 C0=65.96793 length=1
New "Line.t2dswitch0" phases=3 bus1=b5 bus2=b52d Switch=True
